/batch
/config,noeldb,1     ! force off writing results to database
*get,_wallstrt,active,,time,wall
! ANSYS input file written by Workbench version 17.1 RELEASE
! File used for geometry attach: D:\dmitry.khominich\heat\heat_files\dp0\SYS\DM\SYS.agdb
/title,heat--Steady-State Thermal (A5)
*DIM,_wb_ProjectScratch_dir,string,248
_wb_ProjectScratch_dir(1) = 'D:\dmitry.khominich\heat\heat_files\dp0\SYS\MECH\'
*DIM,_wb_SolverFiles_dir,string,248
_wb_SolverFiles_dir(1) = 'D:\dmitry.khominich\heat\heat_files\dp0\SYS\MECH\'
*DIM,_wb_userfiles_dir,string,248
_wb_userfiles_dir(1) = 'D:\dmitry.khominich\heat\heat_files\user_files\'
/com,--- Data in consistent CGS units. See Solving Units in the help system for more information.
/units,CGS
/nopr
/wb,file,start              !  signify a WB generated input file
/prep7
! Turn off shape checking because checks already performed inside WB mesher.
! See help system for more information.
SHPP,OFF,,NOWARN
/nolist
etcon,set             ! allow ANSYS to choose best KEYOP's for 180x elements
/com,*********** Nodes for the whole assembly ***********
nblock,3
(1i9,3e20.9e3)
        1    2.000000000E+000    6.000000000E+000    0.000000000E+000
        2    0.000000000E+000    6.000000000E+000    0.000000000E+000
        3    1.600000000E+000    6.000000000E+000    0.000000000E+000
        4    1.200000000E+000    6.000000000E+000    0.000000000E+000
        5    8.000000000E-001    6.000000000E+000    0.000000000E+000
        6    4.000000000E-001    6.000000000E+000    0.000000000E+000
        7    0.000000000E+000    4.000000000E+000    0.000000000E+000
        8    0.000000000E+000    5.600000000E+000    0.000000000E+000
        9    0.000000000E+000    5.200000000E+000    0.000000000E+000
       10    0.000000000E+000    4.800000000E+000    0.000000000E+000
       11    0.000000000E+000    4.400000000E+000    0.000000000E+000
       12    0.000000000E+000    0.000000000E+000    0.000000000E+000
       13    0.000000000E+000    3.555555556E+000    0.000000000E+000
       14    0.000000000E+000    3.111111111E+000    0.000000000E+000
       15    0.000000000E+000    2.666666667E+000    0.000000000E+000
       16    0.000000000E+000    2.222222222E+000    0.000000000E+000
       17    0.000000000E+000    1.777777778E+000    0.000000000E+000
       18    0.000000000E+000    1.333333333E+000    0.000000000E+000
       19    0.000000000E+000    8.888888889E-001    0.000000000E+000
       20    0.000000000E+000    4.444444444E-001    0.000000000E+000
! ... 71 like lines cut
/wb,elem,start            !  set before creation of elements
/com,*********** Elements for Body 1 "Surface Body" ***********
et,1,55
keyo,1,3,3
eblock,19,solid,,70
(19i9)
        1        1        1        1        0        0        0        0        4        0        1       42       44       40       39
        1        1        1        1        0        0        0        0        4        0        2       39       72       71       42
        1        1        1        1        0        0        0        0        4        0        3       40       41       43       39
        1        1        1        1        0        0        0        0        4        0        4       43       73       72       39
        1        1        1        1        0        0        0        0        4        0        5       40       65       64       41
        1        1        1        1        0        0        0        0        4        0        6       44       66       65       40
        1        1        1        1        0        0        0        0        4        0        7       41       45       47       43
        1        1        1        1        0        0        0        0        4        0        8       41       64       63       45
        1        1        1        1        0        0        0        0        4        0        9       42       46       48       44
        1        1        1        1        0        0        0        0        4        0       10       42       71       70       46
        1        1        1        1        0        0        0        0        4        0       11       47       74       73       43
        1        1        1        1        0        0        0        0        4        0       12       48       85       66       44
        1        1        1        1        0        0        0        0        4        0       13       45       49       51       47
        1        1        1        1        0        0        0        0        4        0       14       45       63       62       49
        1        1        1        1        0        0        0        0        4        0       15       46       50       52       48
        1        1        1        1        0        0        0        0        4        0       16       46       70       69       50
        1        1        1        1        0        0        0        0        4        0       17       51       75       74       47
        1        1        1        1        0        0        0        0        4        0       18       52       86       85       48
        1        1        1        1        0        0        0        0        4        0       19       49       53       55       51
        1        1        1        1        0        0        0        0        4        0       20       49       62       61       53
! ... 51 like lines cut
!Material Id = {D62B188A-6A78-4111-8F31-98339A67E51C}
/wb,elem,end               !  done creating elements
/com,*********** Send User Defined Coordinate System(s) ***********
csys,0
toffst,273.15,  ! Temperature offset from absolute zero
/wb,mat,start              !  starting to send materials
/com,*********** Send Materials ***********
MP,DENS,1,7.85,	! g cm^-3
MP,ALPX,1,1.2e-05,	! C^-1
MP,C,1,4340000,	! erg g^-1 C^-1
MP,KXX,1,180000,	! dyne s^-1 C^-1
MP,RSVX,1,1.7e-05,	! ohm cm
MP,EX,1,2000000000000,	! dyne cm^-2
MP,NUXY,1,0.3,
MP,MURX,1,10000,

/wb,mat,end                !  done sending materials
/com,*********** Send Sheet Properties ***********
r,1,1.
!************************* Model Summary ********************
!Surface Body,	Structural Steel,	matid,	1
!************************* End Model Summary ********************
! get the diagonal of the bounding box. Needed later for other things
*get,_xmin,node,,mnloc,x
*get,_ymin,node,,mnloc,y
*get,_zmin,node,,mnloc,z
*get,_xmax,node,,mxloc,x
*get,_ymax,node,,mxloc,y
*get,_zmax,node,,mxloc,z
_ASMDIAG=(_xmax-_xmin)*(_xmax-_xmin)+(_ymax-_ymin)*(_ymax-_ymin)+(_zmax-_zmin)*(_zmax-_zmin)
_ASMDIAG=SQRT(_ASMDIAG)
/wb,contact,start          !  starting to send contact
/wb,contact,end            !  done creating contacts
/golist
/wb,load,start             !  starting to send loads
esel,all
fcum,add                   ! add nodal forces up (needed in case have loads on the same edge,vertex)
/com,*********** Create Vertex Thermal Heat ***********
CMBLOCK,C0      ,NODE,        1
(8i10)
         7
cmsel,s,C0
f,all,heat,800000.
nsel,all
fcum                       ! reset default on fcum command since done sending WB F loads
/com,*********** Create "Convection" ***********
et,2,151
keyop,2,3,10   !get plane option and thickness from underlying element
eblock,10,,,5
(15i9)
       71        2        2        2        0        6        5
       72        2        2        2        0        5        4
       73        2        2        2        0        4        3
       74        2        2        2        0        3        1
       75        2        2        2        0        2        6
-1
esel,s,type,,2
keyop,2,8,2.
keyop,2,13,0.

*DIM,_convvari25,TABLE,2,1,1,TIME,
! Time values
_convvari25(1,0,1) = 0.
_convvari25(2,0,1) = 1.
! Load values
_convvari25(1,1,1) = 0.
_convvari25(2,1,1) = 34000.


*DIM,_loadvari25,TABLE,2,1,1,TIME,
! Time values
_loadvari25(1,0,1) = 0.
_loadvari25(2,0,1) = 1.
! Load values
_loadvari25(1,1,1) = -6.
_loadvari25(2,1,1) = -6.

esel,all
/com,***************** Define Uniform Initial temperature ***************
tunif,-6.
/gst,on,on
fini
*get,_numnode,node,0,count
*get,_numelem,elem,0,count
*get, _MAXELEMNUM, elem, 0, NUM, MAX
*get, _MAXNODENUM, node, 0, NUM, MAX
*get, _MAXELEMTYPE, etyp, 0, NUM, MAX
*get, _MAXREALCONST, real, 0, NUM, MAX
/go
/wb,load,end               !  done creating loads
/com,--- Number of total nodes = %_numnode%
/com,--- Number of contact elements = 5
/com,--- Number of spring elements = 0
/com,--- Number of bearing elements = 0
/com,--- Number of solid elements = 70
/com,--- Number of total elements = %_numelem%
*get,_wallbsol,active,,time,wall
/com,****************************************************************************
/com,*************************    SOLUTION       ********************************
/com,****************************************************************************
/solu
antype,0                   ! static analysis
!eqsl,sparse               ! using sparse solver which is default so no eqsl command needed
cntr,print,1               ! print out contact info and also make no initial contact an error
resc,,none                 ! Do not keep any restart files
rstsuppress,cont           ! Don't write contact results
dmpopt,emat,no             ! Don't combine emat file for DANSYS
dmpopt,esav,no             ! Don't combine esav file for DANSYS
/com,****************************************************
/com,******************* SOLVE FOR LS 1 ****************
esel,s,type,,2
nsle
sf,all,conv,%_convvari25%,%_loadvari25%
nsel,all
esel,all
autots,on
nsub,1,10,1
time,1.
outres,erase
outres,all,none
outres,nsol,all
outres,rsol,all
outres,fflux,all
/nopr
esel,s,mat,,2
cm,_elmisc,elem
esel,all
/gopr
outres,misc,all,_elmisc
cnvtol,heat,,.001,,10.	! Program Controlled. Set MINREF equivalent of 1e-6 Watts
! *********** WB SOLVE COMMAND ***********
! check interactive state
*get,ANSINTER_,active,,int
*if,ANSINTER_,ne,0,then
/eof
*endif
solve
/com *************** Write FE CONNECTORS ********* 
CEWRITE,file,ce,,INTE
/com,****************************************************
/com,*************** FINISHED SOLVE FOR LS 1 *************
*set,_DS_PROGRESS          ! turn off progress updates to avoid virus scanning bug
*get,_wallasol,active,,time,wall
/post1
xmlo,ENCODING,ISO-8859-1
xmlo,parm
/xml,parm,xml
fini
/gopr
*get,_walldone,active,,time,wall
_preptime=(_wallbsol-_wallstrt)*3600
_solvtime=(_wallasol-_wallbsol)*3600
_posttime=(_walldone-_wallasol)*3600
_totaltim=(_walldone-_wallstrt)*3600
/wb,file,end               ! done with WB generated input
